@<TRIPOS>MOLECULE
generated by VMD
  151  156    1    0    0
SMALL
USER_CHARGES
****
Energy = 0

@<TRIPOS>ATOM
      1  C1         1.2760   -0.3100   -0.0780   C1    1  GALN        -0.324800
      2  H1         1.5550   -0.6390    0.9230   H1    1  GALN        0.383000
      3  C5        -0.3160   -2.2010   -0.3300   C5    1  GALN        0.252400
      4  H5        -0.0810   -2.5410    0.6810   H5    1  GALN        0.190500
      5  O5         0.8720   -1.4850   -0.8610   O5    1  GALN        -0.056600
      6  C2         0.1050    0.7050    0.0120   C2    1  GALN        -0.220300
      7  H2        -0.1100    1.0600   -0.9970   H2    1  GALN        0.496900
      8  N          0.4620    1.8400    0.8750    N    1  GALN        -0.595400
      9  HN1        1.4020    1.6810    1.1770  HN1    1  GALN        0.488000
     10  HN2       -0.1210    1.7740    1.6850  HN2    1  GALN        0.488000
     11  C          0.4050    3.1100    0.4710    C    1  GALN        0.652300
     12  O          0.0910    3.4220   -0.6780    O    1  GALN        -0.338800
     13  CT         0.7630    4.1630    1.5340   CT    1  GALN        -0.536800
     14  HT1        0.0920    4.0670    2.3880  HT1    1  GALN        0.220000
     15  HT2        0.6630    5.1660    1.1140  HT2    1  GALN        0.220000
     16  HT3        1.7910    4.0170    1.8650  HT3    1  GALN        0.220000
     17  C3        -1.1580    0.0220    0.5640   C3    1  GALN        -0.196300
     18  H3        -0.9600   -0.2700    1.5980   H3    1  GALN        0.292600
     19  O3        -2.3010    0.9720    0.5330   O3    1  GALN        -0.487000
     20  HO3       -2.7000    0.9130   -0.3450  HO3    1  GALN        0.469800
     21  C4        -1.5130   -1.2380   -0.2400   C4    1  GALN        -0.448300
     22  H4        -2.3460   -1.7540    0.2430   H4    1  GALN        0.335900
     23  O4        -1.9300   -0.8350   -1.5650   O4    1  GALN        -0.679200
     24  HO4       -2.6800   -0.2260   -1.4690  HO4    1  GALN        0.559400
     25  C6        -0.5900   -3.4390   -1.1980   C6    1  GALN        -0.456900
     26  H61       -1.4300   -4.0050   -0.7970  H61    1  GALN        0.249200
     27  H62       -0.8240   -3.1450   -2.2200  H62    1  GALN        0.249200
     28  O6         0.5910   -4.2650   -1.2000   O6    1  GALN        -0.596200
     29  HO6        1.3320   -3.6870   -1.4400  HO6    1  GALN        0.446500
     30  C1         7.7220    0.1800    0.6000   C1    2  GLCA        0.258000
     31  H1         7.9150    1.1700    1.0180   H1    2  GLCA        0.094000
     32  C5         6.0620   -0.3870    2.4270   C5    2  GLCA        0.386000
     33  H5         6.2390    0.5560    2.9450   H5    2  GLCA        0.004000
     34  O5         7.3070   -0.7300    1.6740   O5    2  GLCA        -0.316000
     35  C2         6.5910    0.2690   -0.4440   C2    2  GLCA        0.035000
     36  H2         6.4510   -0.7030   -0.9180   H2    2  GLCA        0.101000
     37  O2         6.9330    1.2530   -1.4620   O2    2  GLCA        -0.685000
     38  HO2        6.1480    1.3560   -2.0200  HO2    2  GLCA        0.627000
     39  C3         5.2890    0.7070    0.2420   C3    2  GLCA        -0.045000
     40  H3         5.4090    1.7270    0.6100   H3    2  GLCA        0.078000
     41  O3         4.1960    0.6910   -0.7210   O3    2  GLCA        -0.786000
     42  HO3        3.3660    0.7510   -0.2170  HO3    2  GLCA        0.594000
     43  C4         4.9100   -0.1940    1.4280   C4    2  GLCA        0.288500
     44  H4         4.5990   -1.1710    1.0550   H4    2  GLCA        0.085000
     45  O4         3.7810    0.4840    2.1000   O4    2  GLCA        -0.625600
     46  C6         5.6560   -1.4600    3.5120   C6    2  GLCA        0.281000
     47  O61        6.2940   -2.5440    3.5590  O61    2  GLCA        -0.718000
     48  O62        4.7290   -1.2070    4.3230  O62    2  GLCA        -0.718000
     49  C1        12.8140    1.3310    1.6830   C1    3  GALN        0.266600
     50  H1        12.9010    2.0370    0.8570   H1    3  GALN        0.047000
     51  C5        11.1040    2.7460    2.8010   C5    3  GALN        0.390000
     52  H5        11.1460    3.4580    1.9750   H5    3  GALN        0.114000
     53  O5        12.4240    2.0700    2.8910   O5    3  GALN        -0.193000
     54  C2        11.7480    0.2560    1.3420   C2    3  GALN        0.276000
     55  H2        11.7270   -0.4670    2.1590   H2    3  GALN        0.175000
     56  N         12.0750   -0.4240    0.0810    N    3  GALN        -0.416000
     57  HN        12.1770    0.1550   -0.7390   HN    3  GALN        0.257000
     58  C         12.2050   -1.7480   -0.0220    C    3  GALN        0.633000
     59  O         12.1050   -2.4970    0.9500    O    3  GALN        -0.455000
     60  CT        12.4950   -2.2800   -1.4360   CT    3  GALN        -0.476000
     61  HT1       11.6940   -1.9820   -2.1130  HT1    3  GALN        0.156000
     62  HT2       12.5590   -3.3700   -1.4190  HT2    3  GALN        0.156000
     63  HT3       13.4400   -1.8740   -1.7960  HT3    3  GALN        0.156000
     64  C3        10.3540    0.8980    1.2280   C3    3  GALN        -0.479000
     65  H3        10.3600    1.5690    0.3670   H3    3  GALN        0.176000
     66  O3         9.3270   -0.1570    1.0210   O3    3  GALN        -0.326000
     67  C4        10.0070    1.7140    2.4830   C4    3  GALN        -0.137000
     68  H4         9.0630    2.2400    2.3230   H4    3  GALN        0.242000
     69  O4         9.8410    0.8030    3.5930   O4    3  GALN        -0.696000
     70  HO4        9.1480    0.1660    3.3550  HO4    3  GALN        0.409000
     71  C6        10.8490    3.5300    4.0970   C6    3  GALN        -0.938000
     72  H61        9.9060    4.0720    4.0320  H61    3  GALN        0.363000
     73  H62       10.8060    2.8560    4.9510  H62    3  GALN        0.363000
     74  O6        11.9300    4.4650    4.2850   O6    3  GALN        -0.560000
     75  HO6       12.7520    3.9560    4.2070  HO6    3  GALN        0.550000
     76  C1        18.4350    1.6360    1.2890   C1    4  GALN        -0.324800
     77  H1        18.7410    1.2700    2.2690   H1    4  GALN        0.383000
     78  C5        16.8280   -0.2390    1.0160   C5    4  GALN        0.252400
     79  H5        17.0900   -0.6160    2.0060   H5    4  GALN        0.190500
     80  O5        18.0030    0.4910    0.4770   O5    4  GALN        -0.056600
     81  C2        17.2720    2.6510    1.4500   C2    4  GALN        -0.220300
     82  H2        17.0290    3.0430    0.4610   H2    4  GALN        0.496900
     83  N         17.6590    3.7530    2.3430    N    4  GALN        -0.595400
     84  HN1       18.6070    3.5800    2.6120  HN1    4  GALN        0.488000
     85  HN2       17.0990    3.6600    3.1660  HN2    4  GALN        0.488000
     86  C         17.5960    5.0370    1.9860    C    4  GALN        0.652300
     87  O         17.2510    5.3920    0.8590    O    4  GALN        -0.338800
     88  CT        17.9890    6.0500    3.0760   CT    4  GALN        -0.536800
     89  HT1       17.3430    5.9250    3.9450  HT1    4  GALN        0.220000
     90  HT2       17.8820    7.0680    2.6960  HT2    4  GALN        0.220000
     91  HT3       19.0260    5.8880    3.3720  HT3    4  GALN        0.220000
     92  C3        16.0220    1.9530    2.0140   C3    4  GALN        -0.095700
     93  H3        16.2480    1.6240    3.0300   H3    4  GALN        0.292600
     94  O3        14.8830    2.9080    2.0490   O3    4  GALN        -0.386400
     95  C4        15.6380    0.7250    1.1740   C4    4  GALN        -0.448300
     96  H4        14.8170    0.1950    1.6630   H4    4  GALN        0.335900
     97  O4        15.1850    1.1770   -0.1220   O4    4  GALN        -0.679200
     98  HO4       14.4410    1.7840    0.0170  HO4    4  GALN        0.559400
     99  C6        16.5230   -1.4430    0.1120   C6    4  GALN        -0.456900
    100  H61       15.6920   -2.0210    0.5170  H61    4  GALN        0.249200
    101  H62       16.2610   -1.1120   -0.8920  H62    4  GALN        0.249200
    102  O6        17.6990   -2.2730    0.0460   O6    4  GALN        -0.596200
    103  HO6       18.4360   -1.6900   -0.1950  HO6    4  GALN        0.446500
    104  C1        23.7890    1.5270    0.8870   C1    5  GLCA        0.258000
    105  H1        24.1140    2.5650    0.7850   H1    5  GLCA        0.094000
    106  C5        22.1230    2.1140    2.7010   C5    5  GLCA        0.386000
    107  H5        22.4280    3.1600    2.7090   H5    5  GLCA        0.004000
    108  O5        23.2950    1.3030    2.2510   O5    5  GLCA        -0.316000
    109  C2        22.6500    1.2400   -0.1110   C2    5  GLCA        0.035000
    110  H2        22.3790    0.1850   -0.0650   H2    5  GLCA        0.101000
    111  O2        23.0830    1.5640   -1.4640   O2    5  GLCA        -0.685000
    112  HO2       22.3030    1.4800   -2.0300  HO2    5  GLCA        0.627000
    113  C3        21.4310    2.1080    0.2340   C3    5  GLCA        -0.045000
    114  H3        21.6860    3.1560    0.0710   H3    5  GLCA        0.078000
    115  O3        20.3190    1.7630   -0.6420   O3    5  GLCA        -0.786000
    116  HO3       19.5170    2.1580   -0.2590  HO3    5  GLCA        0.594000
    117  C4        20.9760    1.9410    1.6920   C4    5  GLCA        0.288500
    118  H4        20.5370    0.9510    1.8220   H4    5  GLCA        0.085000
    119  O4        19.9580    2.9890    1.9140   O4    5  GLCA        -0.625600
    120  C6        21.6170    1.7520    4.1520   C6    5  GLCA        0.281000
    121  O61       22.1170    0.7560    4.7370  O61    5  GLCA        -0.718000
    122  O62       20.7500    2.4740    4.7090  O62    5  GLCA        -0.718000
    123  C1        28.2020    0.6840    2.4970   C1    6  GALN        0.166000
    124  H1        28.8660    1.3570    1.9530   H1    6  GALN        0.047000
    125  O1        29.0080   -0.2510    3.2340   O1    6  GALN        -0.578000
    126  HO1       29.4670    0.2410    3.9310  HO1    6  GALN        0.410000
    127  C5        26.5230    2.4890    2.8130   C5    6  GALN        0.390000
    128  H5        27.1510    3.1800    2.2470   H5    6  GALN        0.114000
    129  O5        27.4090    1.4780    3.4450   O5    6  GALN        -0.193000
    130  C2        27.2690   -0.0520    1.4980   C2    6  GALN        0.276000
    131  H2        26.6610   -0.7580    2.0650   H2    6  GALN        0.175000
    132  N         28.0530   -0.7690    0.4820    N    6  GALN        -0.416000
    133  HN        28.6970   -0.2240   -0.0700   HN    6  GALN        0.257000
    134  C         27.9200   -2.0760    0.2480    C    6  GALN        0.633000
    135  O         27.1590   -2.7890    0.9030    O    6  GALN        -0.455000
    136  CT        28.7860   -2.6380   -0.8930   CT    6  GALN        -0.476000
    137  HT1       28.5520   -2.1190   -1.8230  HT1    6  GALN        0.156000
    138  HT2       28.5880   -3.7050   -1.0210  HT2    6  GALN        0.156000
    139  HT3       29.8410   -2.4980   -0.6580  HT3    6  GALN        0.156000
    140  C3        26.3280    0.9480    0.8040   C3    6  GALN        -0.479000
    141  H3        26.9360    1.6100    0.1830   H3    6  GALN        0.176000
    142  O3        25.3620    0.2180   -0.0580   O3    6  GALN        -0.326000
    143  C4        25.5630    1.8020    1.8260   C4    6  GALN        -0.137000
    144  H4        24.9890    2.5700    1.3000   H4    6  GALN        0.242000
    145  O4        24.6390    0.9490    2.5390   O4    6  GALN        -0.696000
    146  HO4       24.0550    0.5300    1.8870  HO4    6  GALN        0.409000
    147  C6        25.8040    3.2870    3.9110   C6    6  GALN        -0.938000
    148  H61       25.1850    4.0670    3.4700  H61    6  GALN        0.363000
    149  H62       25.1690    2.6330    4.5070  H62    6  GALN        0.363000
    150  O6        26.7990    3.8870    4.7650   O6    6  GALN        -0.560000
    151  HO6       27.4010    3.1750    5.0310  HO6    6  GALN        0.550000
@<TRIPOS>BOND
    1     1    45  1
    2     1     2  1
    3     1     5  1
    4     1     6  1
    5     3     4  1
    6     3    25  1
    7     3     5  1
    8     3    21  1
    9     6     7  1
   10     6     8  1
   11     6    17  1
   12     8    11  1
   13     8     9  1
   14     8    10  1
   15    11    12  1
   16    11    13  1
   17    13    14  1
   18    13    15  1
   19    13    16  1
   20    17    18  1
   21    17    19  1
   22    17    21  1
   23    19    20  1
   24    21    22  1
   25    21    23  1
   26    23    24  1
   27    25    26  1
   28    25    27  1
   29    25    28  1
   30    28    29  1
   31    30    66  1
   32    30    31  1
   33    30    34  1
   34    30    35  1
   35    32    33  1
   36    32    46  1
   37    32    34  1
   38    32    43  1
   39    35    36  1
   40    35    37  1
   41    35    39  1
   42    37    38  1
   43    39    40  1
   44    39    41  1
   45    39    43  1
   46    41    42  1
   47    43    44  1
   48    43    45  1
   49    46    47  1
   50    46    48  1
   51    49    94  1
   52    49    50  1
   53    49    53  1
   54    49    54  1
   55    51    52  1
   56    51    71  1
   57    51    53  1
   58    51    67  1
   59    54    55  1
   60    54    56  1
   61    54    64  1
   62    56    57  1
   63    56    58  1
   64    58    59  1
   65    58    60  1
   66    60    61  1
   67    60    62  1
   68    60    63  1
   69    64    65  1
   70    64    66  1
   71    64    67  1
   72    67    68  1
   73    67    69  1
   74    69    70  1
   75    71    72  1
   76    71    73  1
   77    71    74  1
   78    74    75  1
   79    76   119  1
   80    76    77  1
   81    76    80  1
   82    76    81  1
   83    78    79  1
   84    78    99  1
   85    78    80  1
   86    78    95  1
   87    81    82  1
   88    81    83  1
   89    81    92  1
   90    83    86  1
   91    83    84  1
   92    83    85  1
   93    86    87  1
   94    86    88  1
   95    88    89  1
   96    88    90  1
   97    88    91  1
   98    92    93  1
   99    92    94  1
  100    92    95  1
  101    95    96  1
  102    95    97  1
  103    97    98  1
  104    99   100  1
  105    99   101  1
  106    99   102  1
  107   102   103  1
  108   104   142  1
  109   104   105  1
  110   104   108  1
  111   104   109  1
  112   106   107  1
  113   106   120  1
  114   106   108  1
  115   106   117  1
  116   109   110  1
  117   109   111  1
  118   109   113  1
  119   111   112  1
  120   113   114  1
  121   113   115  1
  122   113   117  1
  123   115   116  1
  124   117   118  1
  125   117   119  1
  126   120   121  1
  127   120   122  1
  128   123   125  1
  129   123   124  1
  130   123   129  1
  131   123   130  1
  132   125   126  1
  133   127   128  1
  134   127   147  1
  135   127   129  1
  136   127   143  1
  137   130   131  1
  138   130   132  1
  139   130   140  1
  140   132   133  1
  141   132   134  1
  142   134   135  1
  143   134   136  1
  144   136   137  1
  145   136   138  1
  146   136   139  1
  147   140   141  1
  148   140   142  1
  149   140   143  1
  150   143   144  1
  151   143   145  1
  152   145   146  1
  153   147   148  1
  154   147   149  1
  155   147   150  1
  156   150   151  1

@<TRIPOS>SUBSTRUCTURE
1 ****        1 TEMP                        0 ****  **** 0 ROOT
